@<TRIPOS>MOLECULE
BF4
 5 4 1 0 0
SMALL
NO_CHARGES

@<TRIPOS>ATOM
      1 F1       1.0243    -0.0804     0.0518 F      1 MOL  0.0000
      2 B1       2.4393    -0.0804     0.0518 B      1 MOL  0.0000
      3 F2       2.9110    -0.1461    -1.2807 F      1 MOL  0.0000
      4 F3       2.9109     1.1065     0.6612 F      1 MOL  0.0000
      5 F4       2.9109    -1.2015     0.7750 F      1 MOL  0.0000
@<TRIPOS>BOND
     1     1     2 1
     2     2     3 1
     3     2     4 1
     4     2     5 1
@<TRIPOS>SUBSTRUCTURE
     1 MOL         1 RESIDUE    0 **** **** 0 ROOT
