@<TRIPOS>MOLECULE
CLO4
 5 4 1 0 0
SMALL
NO_CHARGES

@<TRIPOS>ATOM
      1 O1       0.6360     0.5106     0.0103 O.3    1 MOL  0.0000
      2 Cl1      2.1209     0.5106     0.0103 Cl     1 MOL  0.0000
      3 O2       2.6159    -0.3470     1.1168 O.3    1 MOL  0.0000
      4 O3       2.6158    -0.0190    -1.2856 O.3    1 MOL  0.0000
      5 O4       2.6157     1.8977     0.1996 O.3    1 MOL  0.0000
@<TRIPOS>BOND
     1     1     2 1
     2     2     3 1
     3     2     4 1
     4     2     5 1
@<TRIPOS>SUBSTRUCTURE
     1 MOL         1 RESIDUE    0 **** **** 0 ROOT
