@<TRIPOS>MOLECULE
NO3
 4 3 1 0 0
SMALL
NO_CHARGES

@<TRIPOS>ATOM
      1 O1       1.1407    -0.0651    -0.1018 O.3    1 MOL  0.0000
      2 N1       2.3960    -0.0651    -0.1018 N.3    1 MOL  0.0000
      3 O2       3.0236     0.5203     0.8142 O.3    1 MOL  0.0000
      4 O3       3.0236    -0.6504    -1.0179 O.3    1 MOL  0.0000
@<TRIPOS>BOND
     1     1     2 1
     2     2     3 1
     3     2     4 1
@<TRIPOS>SUBSTRUCTURE
     1 MOL         1 RESIDUE    0 **** **** 0 ROOT
