@<TRIPOS>MOLECULE
OTF
 8 7 1 0 0
SMALL
NO_CHARGES

@<TRIPOS>ATOM
      1 C1       1.0904     0.0733    -0.0881 C.3    1 MOL  0.0000
      2 F1       0.5994    -0.7299     0.8755 F      1 MOL  0.0000
      3 F2       0.5820     1.3018     0.1288 F      1 MOL  0.0000
      4 F3       0.5818    -0.3608    -1.2575 F      1 MOL  0.0000
      5 S1       2.9611     0.0846    -0.1016 S.3    1 MOL  0.0000
      6 O1       3.2824     0.5822     1.2432 O.3    1 MOL  0.0000
      7 O2       3.2826    -1.3278    -0.3483 O.3    1 MOL  0.0000
      8 O3       3.2622     1.0052    -1.2065 O.3    1 MOL  0.0000
@<TRIPOS>BOND
     1     1     2 1
     2     1     3 1
     3     1     4 1
     4     1     5 1
     5     5     6 1
     6     5     7 1
     7     5     8 1
@<TRIPOS>SUBSTRUCTURE
     1 MOL         1 RESIDUE    0 **** **** 0 ROOT
