@<TRIPOS>MOLECULE
PF6
 7 6 1 0 0
SMALL
NO_CHARGES

@<TRIPOS>ATOM
      1 F1       1.4495    -0.5404    -0.0515 F      1 MOL  0.0000
      2 P1       2.9772    -0.1385     0.3878 P.3    1 MOL  0.0000
      3 F2       3.2008    -1.6470     0.9902 F      1 MOL  0.0000
      4 F3       4.5049     0.2634     0.8271 F      1 MOL  0.0000
      5 F4       3.5289    -0.6399    -1.0725 F      1 MOL  0.0000
      6 F5       2.7535     1.3699    -0.2146 F      1 MOL  0.0000
      7 F6       2.4255     0.3628     1.8481 F      1 MOL  0.0000
@<TRIPOS>BOND
     1     1     2 1
     2     2     3 1
     3     2     4 1
     4     2     5 1
     5     2     6 1
     6     2     7 1
@<TRIPOS>SUBSTRUCTURE
     1 MOL         1 RESIDUE    0 **** **** 0 ROOT
