@<TRIPOS>MOLECULE
PMMA
 47 46 1 0 0
SMALL
NO_CHARGES

@<TRIPOS>ATOM
      1 C1       1.7368     0.5624     1.6653 C.3    1 MOL  0.0000
      2 C2       1.4722    -0.4841     0.5646 C.3    1 MOL  0.0000
      3 C3       0.5269    -1.5729     1.0966 C.3    1 MOL  0.0000
      4 C4       2.7965    -1.1749     0.2038 C.3    1 MOL  0.0000
      5 O1       2.9642    -2.3725     0.1140 O.3    1 MOL  0.0000
      6 O2       3.7819    -0.2796    -0.0362 O.3    1 MOL  0.0000
      7 C5       5.0439    -0.8437    -0.4200 C.3    1 MOL  0.0000
      8 H1       2.4110     1.3476     1.3197 H      1 MOL  0.0000
      9 H2       2.1838     0.0830     2.5434 H      1 MOL  0.0000
     10 H3       0.7960     1.0196     1.9856 H      1 MOL  0.0000
     11 H4       1.0232    -2.1457     1.8853 H      1 MOL  0.0000
     12 H5       0.2462    -2.2803     0.3116 H      1 MOL  0.0000
     13 H6       5.7095     0.0060    -0.5732 H      1 MOL  0.0000
     14 H7       4.9405    -1.4240    -1.3408 H      1 MOL  0.0000
     15 H8       5.4271    -1.4977     0.3677 H      1 MOL  0.0000
     16 H9      -0.3777    -1.1376     1.5221 H      1 MOL  0.0000
     17 C6      -0.3831     1.5433    -2.3126 C.3    1 MOL  0.0000
     18 C7      -0.1849     1.1753    -0.8205 C.3    1 MOL  0.0000
     19 C8       0.9926     0.1566    -0.7763 C.3    1 MOL  0.0000
     20 C9       0.2954     2.4756    -0.1591 C.3    1 MOL  0.0000
     21 O3       1.3126     3.0560    -0.4782 O.3    1 MOL  0.0000
     22 O4      -0.5360     2.9360     0.7989 O.3    1 MOL  0.0000
     23 C10     -0.1136     4.1501     1.4404 C.3    1 MOL  0.0000
     24 H10     -1.1908     2.2745    -2.4295 H      1 MOL  0.0000
     25 H11      0.5330     1.9752    -2.7226 H      1 MOL  0.0000
     26 H12     -0.6394     0.6546    -2.8973 H      1 MOL  0.0000
     27 H13      1.8464     0.6838    -1.2097 H      1 MOL  0.0000
     28 H14     -0.8963     4.3860     2.1613 H      1 MOL  0.0000
     29 H15      0.8441     3.9976     1.9446 H      1 MOL  0.0000
     30 H16     -0.0049     4.9524     0.7066 H      1 MOL  0.0000
     31 H17      0.7523    -0.6650    -1.4617 H      1 MOL  0.0000
     32 C11     -3.2965    -0.2517    -1.8082 C.3    1 MOL  0.0000
     33 C12     -2.1072    -0.5770    -0.8796 C.3    1 MOL  0.0000
     34 C13     -1.5166     0.6855    -0.2116 C.3    1 MOL  0.0000
     35 C14     -2.5998    -1.5685     0.1604 C.3    1 MOL  0.0000
     36 O5      -3.0260    -1.2894     1.2612 O.3    1 MOL  0.0000
     37 O6      -2.5436    -2.8332    -0.3137 O.3    1 MOL  0.0000
     38 C15     -3.0258    -3.8437     0.5862 C.3    1 MOL  0.0000
     39 H18     -4.1077     0.2104    -1.2353 H      1 MOL  0.0000
     40 H19     -3.6813    -1.1579    -2.2865 H      1 MOL  0.0000
     41 H20     -2.9914     0.4486    -2.5906 H      1 MOL  0.0000
     42 H21     -1.3992     0.5161     0.8584 H      1 MOL  0.0000
     43 H22     -2.9108    -4.7883     0.0545 H      1 MOL  0.0000
     44 H23     -2.4356    -3.8450     1.5063 H      1 MOL  0.0000
     45 H24     -4.0746    -3.6656     0.8371 H      1 MOL  0.0000
     46 H25     -1.3495    -1.0971    -1.4724 H      1 MOL  0.0000
     47 H26     -2.2443     1.4994    -0.2889 H      1 MOL  0.0000
@<TRIPOS>BOND
     1     1     2 1
     2     1     8 1
     3     1     9 1
     4     1    10 1
     5     2     3 1
     6     2     4 1
     7     2    19 1
     8     3    11 1
     9     3    12 1
    10     3    16 1
    11     4     5 1
    12     4     6 1
    13     6     7 1
    14     7    13 1
    15     7    14 1
    16     7    15 1
    17    17    18 1
    18    17    24 1
    19    17    25 1
    20    17    26 1
    21    18    19 1
    22    18    20 1
    23    18    34 1
    24    19    27 1
    25    19    31 1
    26    20    21 1
    27    20    22 1
    28    22    23 1
    29    23    28 1
    30    23    29 1
    31    23    30 1
    32    32    33 1
    33    32    39 1
    34    32    40 1
    35    32    41 1
    36    33    34 1
    37    33    35 1
    38    33    46 1
    39    34    42 1
    40    34    47 1
    41    35    36 1
    42    35    37 1
    43    37    38 1
    44    38    43 1
    45    38    44 1
    46    38    45 1
@<TRIPOS>SUBSTRUCTURE
     1 MOL         1 RESIDUE    0 **** **** 0 ROOT
