@<TRIPOS>MOLECULE
PTFEMA_REPEAT_CAPPED
 23 22 1 0 0
SMALL
NO_CHARGES

@<TRIPOS>ATOM
      1 C1      -1.0655    -0.8203    -1.2288 C.3    1 MOL  0.0000
      2 C2      -1.2343     0.1032    -0.0067 C.3    1 MOL  0.0000
      3 C3      -1.7345    -0.7096     1.1995 C.3    1 MOL  0.0000
      4 C4       0.1284     0.7051     0.3077 C.3    1 MOL  0.0000
      5 O1       0.4308     1.8680     0.2276 O.3    1 MOL  0.0000
      6 O2       1.0087    -0.2629     0.6879 O.3    1 MOL  0.0000
      7 C5       2.3631     0.1184     0.8077 C.3    1 MOL  0.0000
      8 C6       3.1097    -0.3243    -0.4373 C.3    1 MOL  0.0000
      9 F1       2.5914     0.2281    -1.5420 F      1 MOL  0.0000
     10 F2       4.3973     0.0419    -0.3472 F      1 MOL  0.0000
     11 F3       3.0676    -1.6545    -0.5923 F      1 MOL  0.0000
     12 C7      -2.2115     1.2365    -0.3280 C.3    1 MOL  0.0000
     13 H1      -0.6894    -0.2638    -2.0938 H      1 MOL  0.0000
     14 H2      -2.0363    -1.2508    -1.4969 H      1 MOL  0.0000
     15 H3      -0.3700    -1.6369    -1.0163 H      1 MOL  0.0000
     16 H4      -1.8391    -0.0766     2.0874 H      1 MOL  0.0000
     17 H5      -1.0543    -1.5312     1.4378 H      1 MOL  0.0000
     18 H6      -2.7185    -1.1318     0.9692 H      1 MOL  0.0000
     19 H7       2.4584     1.1999     0.9191 H      1 MOL  0.0000
     20 H8       2.7829    -0.3964     1.6731 H      1 MOL  0.0000
     21 H9      -2.3269     1.9131     0.5239 H      1 MOL  0.0000
     22 H10     -1.8645     1.8283    -1.1794 H      1 MOL  0.0000
     23 H11     -3.1930     0.8164    -0.5722 H      1 MOL  0.0000
@<TRIPOS>BOND
     1     1     2 1
     2     1    13 1
     3     1    14 1
     4     1    15 1
     5     2     3 1
     6     2     4 1
     7     2    12 1
     8     3    16 1
     9     3    17 1
    10     3    18 1
    11     4     5 1
    12     4     6 1
    13     6     7 1
    14     7     8 1
    15     7    19 1
    16     7    20 1
    17     8     9 1
    18     8    10 1
    19     8    11 1
    20    12    21 1
    21    12    22 1
    22    12    23 1
@<TRIPOS>SUBSTRUCTURE
     1 MOL         1 RESIDUE    0 **** **** 0 ROOT
