@<TRIPOS>MOLECULE
PVDF-HFP
 29 28 1 0 0
SMALL
NO_CHARGES

@<TRIPOS>ATOM
      1 C1      -6.0993     0.1180    -0.1402 C.3    1 MOL  0.0000
      2 H1      -6.2203     0.4199     0.9027 H      1 MOL  0.0000
      3 H2      -6.2992     0.9834    -0.7756 H      1 MOL  0.0000
      4 H3      -6.8475    -0.6469    -0.3609 H      1 MOL  0.0000
      5 C2      -4.7032    -0.4498    -0.3935 C.3    1 MOL  0.0000
      6 H4      -4.5902    -0.7461    -1.4403 H      1 MOL  0.0000
      7 H5      -4.5303    -1.3356     0.2215 H      1 MOL  0.0000
      8 C3      -3.6116     0.5563    -0.0739 C.3    1 MOL  0.0000
      9 F1      -3.6370     0.8747     1.2484 F      1 MOL  0.0000
     10 F2      -3.8218     1.7036    -0.7780 F      1 MOL  0.0000
     11 C4      -2.1842     0.0449    -0.4347 C.3    1 MOL  0.0000
     12 F3      -2.1223    -0.0069    -1.7924 F      1 MOL  0.0000
     13 F4      -2.1067    -1.2402     0.0154 F      1 MOL  0.0000
     14 C5      -0.8841     0.7533     0.1030 C.3    1 MOL  0.0000
     15 F5      -0.8799     0.5599     1.4635 F      1 MOL  0.0000
     16 C6      -0.8608     2.2901    -0.1098 C.3    1 MOL  0.0000
     17 F6      -0.8924     2.5759    -1.4208 F      1 MOL  0.0000
     18 F7       0.2435     2.8200     0.4134 F      1 MOL  0.0000
     19 F8      -1.8958     2.8892     0.4816 F      1 MOL  0.0000
     20 C7       0.3020     0.0071    -0.5353 C.3    1 MOL  0.0000
     21 H6       0.2201     0.0795    -1.6216 H      1 MOL  0.0000
     22 H7       0.1616    -1.0422    -0.2688 H      1 MOL  0.0000
     23 C8       1.7446     0.3696    -0.1772 C.3    1 MOL  0.0000
     24 F9       1.8642     0.6658     1.1528 F      1 MOL  0.0000
     25 F10      2.1206     1.4995    -0.8648 F      1 MOL  0.0000
     26 C9       2.7207    -0.7349    -0.5200 C.3    1 MOL  0.0000
     27 H8       2.6401    -0.9953    -1.5778 H      1 MOL  0.0000
     28 H9       2.5158    -1.6187     0.0873 H      1 MOL  0.0000
     29 H10      3.7333    -0.3839    -0.3142 H      1 MOL  0.0000
@<TRIPOS>BOND
     1     1     2 1
     2     1     3 1
     3     1     4 1
     4     1     5 1
     5     5     6 1
     6     5     7 1
     7     5     8 1
     8     8     9 1
     9     8    10 1
    10     8    11 1
    11    11    12 1
    12    11    13 1
    13    11    14 1
    14    14    15 1
    15    14    16 1
    16    14    20 1
    17    16    17 1
    18    16    18 1
    19    16    19 1
    20    20    21 1
    21    20    22 1
    22    20    23 1
    23    23    24 1
    24    23    25 1
    25    23    26 1
    26    26    27 1
    27    26    28 1
    28    26    29 1
@<TRIPOS>SUBSTRUCTURE
     1 MOL         1 RESIDUE    0 **** **** 0 ROOT
