@<TRIPOS>MOLECULE
SO4
 5 4 1 0 0
SMALL
NO_CHARGES

@<TRIPOS>ATOM
      1 O1       1.2223    -0.0837    -0.0907 O.3    1 MOL  0.0000
      2 S1       2.7393    -0.0839    -0.0909 S.3    1 MOL  0.0000
      3 O2       3.2451     1.3112    -0.4056 O.3    1 MOL  0.0000
      4 O3       3.2451    -0.5091     1.2746 O.3    1 MOL  0.0000
      5 O4       3.2447    -1.0541    -1.1420 O.3    1 MOL  0.0000
@<TRIPOS>BOND
     1     1     2 1
     2     2     3 1
     3     2     4 1
     4     2     5 1
@<TRIPOS>SUBSTRUCTURE
     1 MOL         1 RESIDUE    0 **** **** 0 ROOT
