@<TRIPOS>MOLECULE
TFSI_GAUCHE
 16 15 1 0 0
SMALL
NO_CHARGES

@<TRIPOS>ATOM
      1 O1       4.4957    -0.8653     0.9258 O.3    1 MOL  0.0000
      2 S1       4.7858     0.5535     1.0599 S.3    1 MOL  0.0000
      3 O2       5.7149     0.9460     2.1099 O.3    1 MOL  0.0000
      4 O3       4.8612     1.3172    -0.1783 O.3    1 MOL  0.0000
      5 N1       3.1164     1.2242     1.7375 N.3    1 MOL  0.0000
      6 S2       2.5451     0.6636     3.1838 S.3    1 MOL  0.0000
      7 O4       3.4869    -0.3070     3.6923 O.3    1 MOL  0.0000
      8 O5       2.0408     1.7248     4.0321 O.3    1 MOL  0.0000
      9 C1       1.0506    -0.3465     2.6800 C.3    1 MOL  0.0000
     10 F1       0.0968     0.4249     2.1693 F      1 MOL  0.0000
     11 F2       1.3980    -1.2613     1.7842 F      1 MOL  0.0000
     12 F3       0.5819    -0.9538     3.7695 F      1 MOL  0.0000
     13 C2       2.5651     2.3759     1.1094 C.3    1 MOL  0.0000
     14 F4       3.4065     3.4258     1.1483 F      1 MOL  0.0000
     15 F5       2.2851     2.1404    -0.1816 F      1 MOL  0.0000
     16 F6       1.4186     2.7767     1.6775 F      1 MOL  0.0000
@<TRIPOS>BOND
     1     1     2 1
     2     2     3 1
     3     2     4 1
     4     2     5 1
     5     5     6 1
     6     5    13 1
     7     6     7 1
     8     6     8 1
     9     6     9 1
    10     9    10 1
    11     9    11 1
    12     9    12 1
    13    13    14 1
    14    13    15 1
    15    13    16 1
@<TRIPOS>SUBSTRUCTURE
     1 MOL         1 RESIDUE    0 **** **** 0 ROOT
