@<TRIPOS>MOLECULE
EGDA
 40 39 1 0 0
SMALL
NO_CHARGES

@<TRIPOS>ATOM
      1 HA       1.7760     0.1356     0.0531 C.3    1 EGD  0.0000
      2 TA       3.1656    -0.3756     0.4322 C.3    1 EGD  0.0000
      3 C1       3.1848    -1.8480     0.7699 C.2    1 EGD  0.0000
      4 O1       2.1171    -2.5176     0.7530 O.2    1 EGD  0.0000
      5 O2       4.3742    -2.5015     1.1137 O.2    1 EGD  0.0000
      6 C2       5.6437    -1.8567     1.1709 C.3    1 EGD  0.0000
      7 C3       6.7075    -2.8639     1.5841 C.3    1 EGD  0.0000
      8 O3       7.9616    -2.2175     1.6339 O.3    1 EGD  0.0000
      9 C4       8.9546    -3.1450     2.0173 C.3    1 EGD  0.0000
     10 C5      10.3080    -2.4400     2.0566 C.3    1 EGD  0.0000
     11 O4      11.3347    -3.3687     2.3514 O.3    1 EGD  0.0000
     12 C6      11.6628    -3.3269     3.7251 C.3    1 EGD  0.0000
     13 C7      12.6598    -4.4338     4.0395 C.3    1 EGD  0.0000
     14 O5      13.8539    -4.2340     3.2872 O.2    1 EGD  0.0000
     15 C8      14.9608    -5.0893     3.3436 C.2    1 EGD  0.0000
     16 O6      15.9652    -4.8163     2.6327 O.2    1 EGD  0.0000
     17 TB      14.9626    -6.3161     4.2253 C.3    1 EGD  0.0000
     18 HB      16.2752    -7.0968     4.1654 C.3    1 EGD  0.0000
     19 H1       1.0689    -0.0047     0.8985 H      1 EGD  0.0000
     20 H2       1.8313     1.2189    -0.1851 H      1 EGD  0.0000
     21 H3       1.3968    -0.4041    -0.8408 H      1 EGD  0.0000
     22 H4       3.8544    -0.1904    -0.4191 H      1 EGD  0.0000
     23 H5       3.5290     0.2007     1.3093 H      1 EGD  0.0000
     24 H6       5.8999    -1.4430     0.1714 H      1 EGD  0.0000
     25 H7       5.6124    -1.0309     1.9146 H      1 EGD  0.0000
     26 H8       6.4340    -3.2724     2.5841 H      1 EGD  0.0000
     27 H9       6.7185    -3.6890     0.8352 H      1 EGD  0.0000
     28 H10      8.7366    -3.5559     3.0291 H      1 EGD  0.0000
     29 H11      9.0167    -3.9817     1.2838 H      1 EGD  0.0000
     30 H12     10.5107    -2.0175     1.0494 H      1 EGD  0.0000
     31 H13     10.2688    -1.5734     2.7597 H      1 EGD  0.0000
     32 H14     12.1272    -2.3480     3.9829 H      1 EGD  0.0000
     33 H15     10.7600    -3.4839     4.3582 H      1 EGD  0.0000
     34 H16     12.8935    -4.4129     5.1259 H      1 EGD  0.0000
     35 H17     12.2093    -5.4169     3.7820 H      1 EGD  0.0000
     36 H18     14.7832    -6.0065     5.2767 H      1 EGD  0.0000
     37 H19     14.1355    -6.9875     3.9111 H      1 EGD  0.0000
     38 H20     16.2121    -7.9805     4.8348 H      1 EGD  0.0000
     39 H21     16.4673    -7.4508     3.1299 H      1 EGD  0.0000
     40 H22     17.1199    -6.4582     4.5014 H      1 EGD  0.0000
@<TRIPOS>BOND
     1     1     2 1
     2     2     3 1
     3     3     4 2
     4     3     5 1
     5     5     6 1
     6     6     7 1
     7     7     8 1
     8     8     9 1
     9     9    10 1
    10    10    11 1
    11    11    12 1
    12    12    13 1
    13    13    14 1
    14    14    15 1
    15    15    16 2
    16    15    17 1
    17    17    18 1
    18     1    19 1
    19     1    20 1
    20     1    21 1
    21     2    22 1
    22     2    23 1
    23     6    24 1
    24     6    25 1
    25     7    26 1
    26     7    27 1
    27     9    28 1
    28     9    29 1
    29    10    30 1
    30    10    31 1
    31    12    32 1
    32    12    33 1
    33    13    34 1
    34    13    35 1
    35    17    36 1
    36    17    37 1
    37    18    38 1
    38    18    39 1
    39    18    40 1
@<TRIPOS>SUBSTRUCTURE
     1 EGD         1 RESIDUE    0 **** **** 0 ROOT
